710

       C   2.765   9.871   6.018
       C   4.946   7.002   3.776
       C   1.869   7.316   4.963
       C   3.544   6.124   4.581
       C   3.385   6.299   4.220
       C   1.161   8.558   5.370
       C   2.859   7.589   3.834
       C   4.907   6.433   4.353
       C   2.529   9.841   5.088
       C   1.900   9.608   6.178
       C   5.420   7.101   4.608
       C   3.162   9.177   4.365
       C   3.625   6.134   5.191
       C   5.156   8.238   5.455
       C   4.137   6.114   4.350
       C   4.804   8.201   5.983
       C   5.367   7.465   5.417
       C   2.968   6.512   4.428
       C   4.049   6.907   3.448
       C   3.457   6.930   3.547
       C   4.260   8.954   4.397
       C   3.646   6.113   5.135
       C   2.509   6.777   5.135
       C   2.654   9.883   5.997
       C   3.300   8.790   3.979
       C   2.145   6.974   5.493
       C   5.000   7.869   5.876
       C   1.926   9.681   6.044
       C   2.576   6.733   5.373
       C   4.314   6.842   6.172
       C   2.023   9.701   5.082
       C   3.270   9.436   4.680
       C   3.857   8.588   3.748
       C   3.413   9.688   5.314
       C   5.245   6.949   4.216
       C   1.972   7.932   4.356
       C   2.972   6.575   5.792
       C   4.829   6.289   4.884
       C   1.381   7.783   6.099
       C   4.808   6.427   4.204
       C   4.361   9.130   5.361
       C   3.042   7.464   3.655
       C   3.431   7.267   3.446
       C   3.608   6.188   4.277
       C   4.936   8.589   4.300
       C   5.237   8.346   5.057
       C   4.889   7.689   6.014
       C   4.576   6.198   5.165
       C   3.382   6.560   3.851
       C   3.409   6.158   4.745
       C   3.267   6.858   3.688
       C   4.867   7.211   5.988
       C   2.458   8.167   4.089
       C   4.263   6.093   4.492
       C   4.285   8.934   5.992
       C   4.435   8.126   3.500
       C   4.035   6.824   3.489
       C   1.336   9.160   5.770
       C   4.458   8.002   3.460
       C   3.075   9.870   5.631
       C   4.698   7.260   6.132
       C   1.494   8.945   4.776
       C   2.742   6.620   4.683
       C   3.447   9.149   4.297
       C   4.472   6.932   6.135
       C   4.782   7.587   3.531
       C   2.209   9.769   5.066
       C   4.808   6.358   5.267
       C   2.235   9.527   4.656
       C   2.227   9.824   5.210
       C   1.284   8.996   5.279
       C   3.277   9.004   4.148
       C   3.198   6.481   5.830
       C   1.565   9.033   4.740
       C   3.773   9.238   4.507
       C   4.798   7.037   3.642
       C   1.231   8.729   6.037
       C   4.180   7.295   3.340
       C   1.273   8.915   5.203
       C   3.260   6.642   3.856
       C   1.803   7.200   5.435
       C   4.162   9.145   4.672
       C   4.168   6.380   5.752
       C   3.653   9.562   5.478
       C   5.179   8.461   4.801
       C   4.074   6.205   4.119
       C   2.281   9.796   6.125
       C   4.072   6.108   5.264
       C   3.456   8.642   3.891
       C   4.583   8.679   5.852
       C   2.890   6.439   4.981
       C   3.169   7.657   3.565
       C   4.306   6.078   4.985
       C   3.131   6.312   5.193
       C   2.915   7.100   3.866
       C   2.134   9.751   6.120
       C   2.846   6.503   4.792
       C   3.200   9.750   6.060
       C   1.606   8.737   4.556
       C   1.552   8.026   4.651
       C   1.436   7.993   4.821
       C   4.670   8.242   6.112
       C   3.744   6.412   5.876
       C   2.289   9.032   4.271
       C   5.056   7.454   5.870
       C   3.866   6.280   5.620
       C   1.396   9.194   5.971
       C   1.188   8.227   5.925
       C   5.364   7.826   4.262
       C   5.439   7.460   5.221
       C   1.784   9.634   5.896
       C   1.777   9.662   5.527
       C   5.315   6.878   5.096
       C   3.885   6.253   5.579
       C   1.896   8.014   4.369
       C   3.454   6.332   5.677
       C   3.449   9.694   5.511
       C   3.166   7.137   3.625
       C   2.319   7.012   4.872
       C   1.382   7.663   5.327
       C   5.301   8.271   4.705
       C   1.727   9.614   5.428
       C   5.137   7.647   5.779
       C   2.939   6.496   4.592
       C   1.291   9.076   5.438
       C   5.103   7.986   3.901
       C   4.946   6.411   5.102
       C   4.934   7.043   3.745
       C   4.576   8.621   5.923
       C   3.062   9.867   5.447
       C   4.549   8.581   6.000
       C   3.032   9.291   4.435
       C   5.211   6.759   4.391
       C   5.468   7.370   5.060
       C   5.135   7.442   3.835
       C   1.811   7.278   6.081
       C   5.398   7.409   5.336
       C   4.619   8.486   3.828
       C   3.473   7.398   3.410
       C   3.498   6.437   5.895
       C   2.401   6.906   4.940
       C   4.653   7.029   3.558
       C   3.559   9.102   4.252
       C   3.926   6.080   5.165
       C   3.137   7.216   3.623
       C   4.882   6.788   3.856
       C   3.172   9.540   4.740
       C   3.632   6.637   3.665
       C   4.640   8.872   5.038
       C   3.947   8.535   3.691
       C   5.182   8.084   4.068
       C   1.889   7.141   5.734
       C   5.167   6.844   5.446
       C   5.062   8.020   5.750
       C   1.939   7.112   5.713
       C   3.682   7.636   3.346
       C   2.953   9.789   5.037
       C   1.262   8.010   6.026
       C   1.247   8.818   6.015
       C   2.284   7.558   4.334
       C   2.950   6.440   5.443
       C   3.419   6.587   6.078
       C   4.369   8.426   3.659
       C   2.267   9.778   5.047
       C   2.771   6.668   4.529
       C   2.003   7.490   4.626
       C   5.110   7.707   3.818
       C   4.560   6.367   5.563
       C   2.369   8.955   4.221
       C   5.173   6.604   4.762
       C   5.227   7.877   4.020
       C   4.514   7.280   3.424
       C   3.363   6.313   5.575
       C   4.437   6.302   4.078
       C   2.922   9.850   6.015
       C   4.551   8.723   5.860
       C   2.560   8.110   4.005
       C   3.177   9.829   5.741
       C   5.338   7.198   4.226
       C   3.190   6.564   4.001
       C   5.085   6.814   4.068
       C   1.389   9.199   5.272
       C   3.966   8.950   4.239
       C   1.362   7.968   4.966
       C   3.686   6.130   4.387
       C   3.477   9.633   5.265
       C   3.319   9.676   5.105
       C   4.670   8.648   4.059
       C   4.643   7.499   3.455
       C   4.860   8.689   4.388
       C   4.535   6.749   3.650
       C   1.795   7.200   5.476
       C   2.581   9.851   6.097
       C   4.270   9.206   5.270
       C   4.936   8.685   5.031
       C   1.812   7.319   6.170
       C   3.299   8.684   3.917
       C   3.720   6.061   4.814
       C   4.864   8.588   5.439
       C   3.075   6.471   5.708
       C   5.173   8.302   5.343
       C   3.341   7.324   3.477
       C   2.144   7.971   4.264
       C   2.639   6.635   5.183
       C   4.510   8.836   5.784
       C   4.314   6.081   4.996
       C   2.325   7.666   4.245
       C   3.059   7.460   3.641
       C   2.424   7.345   4.297
       C   1.647   8.337   4.480
       C   2.692   9.909   5.324
       C   1.476   7.550   5.262
       C   4.509   6.418   5.670
       C   3.253   8.200   3.688
       C   3.921   8.548   3.705
       C   4.102   7.465   3.314
       C   4.286   8.773   6.158
       C   2.107   7.137   6.135
       C   3.718   6.337   5.733
       C   2.980   8.294   3.833
       C   2.291   9.449   4.552
       C   1.850   7.198   5.919
       C   1.466   9.244   5.129
       C   1.335   7.756   5.297
       C   4.865   6.714   5.718
       C   3.681   9.497   5.165
       C   1.193   8.227   5.256
       C   5.066   6.615   5.320
       C   2.836   8.672   4.033
       C   5.095   6.723   4.187
       C   4.085   8.297   3.519
       C   1.259   8.651   6.155
       C   4.857   6.815   5.807
       C   5.436   7.179   5.045
       C   3.708   9.393   4.831
       C   5.002   8.647   4.886
       C   4.611   6.402   4.040
       C   3.168   6.342   4.438
       C   2.193   6.945   5.477
       C   3.436   7.963   3.485
       C   3.724   6.072   4.630
       C   4.506   6.533   5.802
       C   2.403   9.602   4.689
       C   5.137   8.490   5.020
       C   3.710   6.529   3.734
       C   2.158   7.018   5.895
       C   5.371   8.095   4.579
       C   4.974   6.639   5.511
       C   1.823   7.263   6.065
       C   1.537   7.988   4.686
       C   5.401   7.040   4.616
       C   1.920   9.719   5.303
       C   3.521   8.359   3.649
       C   5.441   7.171   4.620
       C   1.246   8.079   6.033
       C   4.135   6.424   3.812
       C   2.609   6.743   5.530
       C   1.708   7.266   5.466
       C   3.061   6.362   4.864
       C   1.511   7.611   6.152
       C   4.440   8.940   4.520
       C   2.113   8.498   4.198
       C   3.900   9.395   5.666
       C   2.449   6.830   5.116
       C   2.709   9.810   5.006
       C   1.540   8.356   4.583
       C   1.945   7.909   4.380
       C   3.601   6.961   3.481
       C   3.782   6.272   5.588
       C   3.638   9.284   4.532
       C   5.450   7.637   5.174
       C   2.554   9.819   6.179
       C   1.180   8.764   5.464
       C   4.682   6.597   5.759
       C   4.365   6.750   6.055
       C   4.615   8.260   6.153
       C   2.948   8.891   4.136
       C   3.860   8.591   3.752
       C   1.305   8.907   6.107
       C   3.071   8.091   3.768
       C   4.875   7.580   6.025
       C   5.065   7.691   3.766
       C   5.487   7.434   4.659
       C   4.872   8.670   4.362
       C   3.363   9.574   4.949
       C   2.571   9.076   4.248
       C   2.287   8.309   4.150
       C   4.238   7.066   3.404
       C   3.642   7.450   3.354
       C   2.683   6.754   4.531
       C   5.236   8.177   5.363
       C   2.562   7.074   4.347
       C   3.973   6.968   3.420
       C   5.243   8.128   5.400
       C   1.862   9.693   5.864
       C   2.395   9.914   5.675
       C   1.892   9.727   5.442
       C   3.737   9.022   4.209
       C   3.384   8.718   3.931
       C   3.198   9.735   6.101
       C   5.343   6.922   5.062
       C   3.710   9.439   5.048
       C   4.768   8.823   4.861
       C   2.526   7.010   4.465
       C   5.086   6.504   4.770
       C   1.431   8.996   4.909
       C   5.047   7.323   5.861
       C   4.606   6.757   3.681
       C   3.682   6.150   5.291
       C   1.471   7.662   5.064
       C   3.838   9.446   5.637
       C   2.474   6.820   5.046
       C   4.651   6.968   6.035
       C   4.798   6.868   3.731
       C   2.554   6.844   4.638
       C   5.286   8.304   4.855
       C   1.150   8.249   5.649
       C   4.302   8.899   4.261
       C   1.528   7.564   6.113
       C   3.423   6.254   5.401
       C   1.348   8.002   4.971
       C   3.096   8.706   3.961
       C   3.710   6.376   5.812
       C   2.384   8.995   4.235
       C   3.303   6.610   3.854
       C   1.582   8.213   4.561
       C   4.763   8.735   4.333
       C   1.260   8.727   5.086
       C   2.756   6.572   4.797
       C   4.969   7.603   5.952
       C   2.486   6.860   4.805
       C   5.208   8.361   5.136
       C   3.063   9.404   4.539
       C   5.017   8.086   3.855
       C   4.278   6.276   4.042
       C   2.954   7.324   3.752
       C   4.413   8.687   3.940
       C   1.857   9.039   4.472
       C   1.259   8.875   5.207
       C   2.190   9.530   4.679
       C   1.242   7.951   5.864
       C   1.423   8.039   4.816
       C   3.303   6.398   5.746
       C   2.268   7.369   4.473
       C   4.021   9.304   5.586
       C   4.241   6.111   4.405
       C   4.745   6.281   5.157
       C   2.711   9.925   5.763
       C   2.441   6.947   4.733
       C   1.210   8.009   5.775
       C   4.395   6.399   5.705
       C   4.159   6.105   5.234
       C   3.828   6.480   5.971
       C   3.009   7.340   3.698
       C   1.297   8.682   4.977
       C   2.570   6.741   4.844
       C   3.289   9.183   4.348
       C   2.325   9.881   5.855
       C   4.682   8.822   5.219
       C   3.526   6.521   6.022
       C   3.606   8.972   4.128
       C   3.051   6.375   4.719
       C   2.425   6.841   5.707
       C   1.874   9.697   5.883
       C   2.474   6.820   5.045
       C   2.415   9.799   6.187
       C   1.344   7.712   5.369
       C   2.885   6.440   5.214
       C   4.108   6.682   6.130
       C   2.390   9.457   4.532
       C   4.402   6.649   5.950
       C   3.146   9.222   4.419
       C   3.421   6.416   3.994
       C   3.065   6.477   4.301
       C   3.183   6.277   4.788
       C   1.855   9.417   4.782
       C   1.243   8.464   6.157
       C   2.395   9.833   5.114
       C   5.036   8.265   5.609
       C   1.881   7.295   4.987
       C   1.463   7.626   5.137
       C   5.087   8.311   4.130
       C   3.146   7.759   3.594
       C   2.039   7.072   5.783
       C   3.821   6.951   3.438
       C   1.835   9.634   5.190
       C   3.658   9.242   4.466
       C   5.289   7.147   4.151
       C   2.540   6.804   4.760
       C   4.271   8.776   6.169
       C   1.593   9.429   6.017
       C   5.496   7.452   4.763
       C   1.674   7.709   4.711
       C   3.524   8.446   3.715
       C   1.401   8.578   4.766
       C   4.358   8.587   3.802
       C   2.009   7.073   5.656
       C   4.194   6.126   5.284
       C   5.473   7.266   4.852
       C   1.259   7.900   5.355
       C   3.368   8.472   3.821
       C   2.967   9.268   4.399
       C   5.108   6.923   5.612
       C   2.633   9.866   5.148
       C   4.985   6.422   4.620
       C   4.534   6.482   5.733
       C   2.555   9.933   5.589
       C   3.567   9.367   4.686
       C   3.616   6.168   5.295
       C   2.142   9.535   4.711
       C   4.191   6.114   4.370
       C   3.393   6.371   4.083
       C   1.394   7.608   5.464
       C   1.363   9.219   5.712
       C   2.246   8.519   4.157
       C   2.438   7.592   4.158
       C   1.726   9.262   4.745
       C   1.364   9.015   5.062
       C   4.918   6.828   5.759
       C   4.837   6.561   4.037
       C   2.506   6.795   5.432
       C   4.586   8.588   5.937
       C   3.383   9.736   5.669
       C   5.224   7.364   3.961
       C   4.029   6.036   4.842
       C   3.454   8.070   3.516
       C   2.969   6.707   4.098
       C   4.847   6.315   5.009
       C   4.249   9.110   5.750
       C   1.817   7.208   5.333
       C   2.366   7.180   4.509
       C   3.828   6.111   4.371
       C   1.966   9.716   5.206
       C   3.036   6.375   4.860
       C   3.394   6.162   4.822
       C   4.914   8.644   4.381
       C   2.979   9.886   5.774
       C   3.195   6.270   4.750
       C   5.339   8.131   5.123
       C   3.430   6.152   4.689
       C   2.420   6.877   4.983
       C   4.028   9.076   4.423
       C   3.896   9.349   4.864
       C   4.545   7.030   3.507
       C   1.574   7.390   5.775
       C   5.375   7.552   5.405
       C   3.417   9.718   5.596
       C   2.211   8.515   4.166
       C   4.974   7.347   5.933
       C   1.534   7.973   4.698
       C   4.523   6.153   4.559
       C   4.114   6.541   5.962
       C   5.119   7.698   3.825
       C   4.023   6.460   3.763
       C   4.609   8.630   5.854
       C   4.263   6.595   5.948
       C   1.458   7.676   5.070
       C   3.538   8.756   3.960
       C   2.843   9.922   5.600
       C   3.145   8.454   3.837
       C   4.502   8.955   4.921
       C   4.335   8.007   3.425
       C   4.482   8.631   3.905
       C   3.182   6.279   4.743
       C   4.482   7.937   3.447
       C   4.988   7.696   3.693
       C   3.884   7.414   3.318
       C   2.632   6.647   4.968
       C   4.388   8.918   4.376
       C   4.207   7.184   3.365
       C   2.850   6.460   5.170
       C   4.715   6.475   5.590
       C   3.908   9.228   4.573
       C   4.900   7.298   5.985
       C   2.937   9.895   5.776
       C   4.136   6.360   5.731
       C   2.148   8.647   4.201
       C   5.397   8.076   4.853
       C   3.241   7.582   3.514
       C   4.503   7.652   3.401
       C   2.402   9.901   5.825
       C   5.347   7.913   4.273
       C   5.406   7.359   4.323
       C   3.658   9.538   5.289
       C   2.959   7.680   3.737
       C   1.977   7.788   4.422
       C   2.081   9.136   4.399
       C   4.902   8.589   4.240
       C   5.486   7.716   4.869
       C   5.361   6.994   4.491
       C   1.162   8.534   5.350
       C   1.195   8.789   5.818
       C   1.589   8.920   4.645
       C   5.099   7.580   3.792
       C   4.447   7.035   3.468
       C   1.614   7.704   4.784
       C   1.507   8.291   4.628
       C   4.836   6.324   5.096
       C   1.227   8.778   5.982
       C   2.513   7.053   4.444
       C   3.571   6.104   4.668
       C   3.999   6.073   4.475
       C   3.351   9.050   4.186
       C   4.680   6.477   5.626
       C   4.475   6.184   5.252
       C   2.258   7.606   4.347
       C   5.364   8.153   4.765
       C   2.173   7.137   4.876
       C   4.777   6.631   3.901
       C   3.537   8.714   3.935
       C   5.238   6.692   4.842
       C   4.083   6.420   3.810
       C   4.313   8.921   5.973
       C   4.158   9.216   5.632
       C   2.214   9.769   6.146
       C   3.805   6.368   3.886
       C   4.805   8.486   5.739
       C   5.198   8.376   4.484
       C   1.141   8.359   5.676
       C   5.221   6.724   5.120
       C   3.427   8.431   3.748
       C   5.006   8.120   5.754
       C   1.935   9.014   4.411
       C   3.992   8.270   3.500
       C   2.804   6.503   5.276
       C   1.634   9.452   6.062
       C   4.901   8.118   5.893
       C   4.488   6.119   4.738
       C   4.625   6.174   4.768
       C   4.072   6.053   4.593
       C   4.874   6.474   5.407
       C   1.205   8.321   6.035
       C   4.742   6.237   4.712
       C   5.167   8.470   4.698
       C   3.302   6.235   4.537
       C   3.223   8.977   4.131
       C   4.221   9.054   4.580
       C   3.030   9.229   4.391
       C   5.425   7.075   4.756
       C   2.392   9.378   4.462
       C   2.802   6.607   5.626
       C   3.503   6.636   6.150
       C   4.109   6.387   3.850
       C   5.156   6.663   4.424
       C   2.761   8.155   3.894
       C   2.236   7.205   4.705
       C   3.838   9.166   4.426
       C   4.048   6.063   4.528
       C   1.917   9.169   4.510
       C   2.141   7.122   6.133
       C   5.266   8.246   4.437
       C   1.504   9.355   5.257
       C   1.993   7.222   4.990
       C   4.472   6.433   5.710
       C   5.244   7.506   3.975
       C   5.273   7.679   5.587
       C   2.171   9.851   5.432
       C   3.098   7.542   3.608
       C   5.484   7.461   5.008
       C   2.684   6.983   4.261
       C   3.717   6.238   4.111
       C   4.608   6.194   4.527
       C   4.725   6.612   3.877
       C   4.639   7.092   6.100
       C   5.017   7.837   3.750
       C   3.012   7.069   3.779
       C   3.207   9.805   5.374
       C   3.299   6.787   3.712
       C   1.590   7.987   4.627
       C   3.523   6.174   5.225
       C   2.422   6.998   4.673
       C   1.919   9.683   6.027
       C   3.537   6.192   5.292
       C   4.082   8.579   3.735
       C   1.246   8.996   5.568
       C   4.301   7.752   3.356
       C   2.129   7.336   4.663
       C   4.793   8.805   4.899
       C   2.122   9.616   4.834
       C   4.683   8.819   5.244
       C   3.312   9.559   4.871
       C   2.300   8.111   4.177
       C   5.199   8.373   5.136
       C   3.225   7.306   3.544
       C   2.519   9.391   4.452
       C   3.149   9.329   4.512
       C   4.805   6.917   5.912
       C   2.398   9.817   5.070
       C   5.438   7.501   5.226
       C   4.451   9.055   5.302
       C   4.275   8.045   3.425
       C   1.617   7.438   5.142
       C   1.293   8.736   6.196
       C   2.343   7.308   4.417
       C   5.399   7.506   4.273
       C   5.227   6.978   5.463
       C   2.823   9.453   4.516
       C   3.921   8.624   3.779
       C   4.531   7.741   3.422
       C   3.862   9.399   5.062
       C   1.837   9.704   5.618
       C   5.130   6.892   4.063
       C   4.649   8.842   5.293
       C   4.589   6.159   4.727
       C   2.567   8.926   4.186
       C   4.877   6.906   5.850
       C   5.166   6.969   4.058
       C   2.853   9.916   5.481
       C   4.894   8.379   3.950
       C   2.843   9.752   4.912
       C   3.888   8.342   3.548
       C   1.789   7.416   4.902
       C   5.370   6.973   5.041
       C   4.258   7.442   3.335
       C   4.125   6.041   4.843
       C   4.181   6.512   5.891
       C   3.133   6.755   3.864
       C   1.299   9.059   5.865
       C   4.163   8.529   3.696
       C   3.701   6.070   4.933
       C   1.318   8.154   4.946
       C   3.416   9.573   6.196
       C   3.805   9.152   4.390
       C   1.455   8.795   4.752
       C   5.445   7.489   4.415
       C   2.365   9.793   6.180
       C   5.426   7.976   4.672
       C   5.367   7.681   4.213
       C   4.712   8.695   5.581
       C   3.825   6.174   5.416
       C   4.127   8.826   4.054
       C   3.428   9.282   4.490
       C   1.151   8.243   5.561
       C   5.232   8.003   4.095
       C   4.790   8.373   3.849
       C   2.833   8.306   3.890
       C   4.323   9.147   5.015
       C   4.460   8.782   5.944
       C   3.828   8.254   3.502
       C   2.158   6.975   5.376
       C   3.636   8.157   3.492
       C   3.545   9.582   5.237
       C   4.707   6.291   4.364
       C   5.058   8.584   4.978
       C   3.617   9.417   6.181
       C   2.388   9.725   4.878
       C   2.503   8.626   4.121
       C   2.163   8.727   4.210
       C   5.068   7.621   3.761
       C   5.253   6.734   4.995
       C   2.589   6.698   5.286
       C   1.397   7.608   5.444
       C   3.194   6.358   5.558
       C   5.064   6.838   5.601
       C   3.052   6.831   3.882
       C   5.403   7.048   5.004
       C   2.216   7.989   4.234
       C   2.676   8.786   4.145
       C   4.660   8.557   3.932
       C   3.471   6.161   4.517
       C   1.430   7.595   5.309
       C   4.140   8.963   4.367
       C   4.775   6.315   4.411
       C   4.367   7.448   3.357
       C   1.236   8.695   6.069
       C   1.547   7.406   5.664
       C   3.209   9.207   4.395
       C   2.504   6.805   4.910
       C   1.667   8.678   4.486
       C   4.371   8.943   4.445
       C   3.689   6.459   5.952
       C   3.882   8.611   3.769
       C   4.212   9.204   4.917
       C   2.617   6.899   6.130
       C   4.666   6.819   3.673
       C   2.890   9.260   4.374
       C   1.502   7.495   5.328
       C   2.136   8.874   4.259
       C   3.859   6.123   4.326
       C   1.182   8.774   5.480
       C   4.882   6.571   5.543
       C   4.605   6.173   4.973
       C   5.198   6.636   4.797
       C   1.384   9.075   6.123
       C   5.213   6.849   5.361
       C   3.170   6.769   6.164
       C   3.598   6.990   3.470
       C   2.895   7.540   3.791
       C   5.011   7.215   3.750
       C   5.438   7.377   4.423
       C   4.065   9.037   6.153
       C   5.031   8.124   3.894
       C   2.689   7.769   3.936
       C   2.161   9.326   4.494
       C   4.539   6.263   4.227
       C   3.744   9.467   5.870
       C   4.607   7.180   6.177
       C   3.545   6.114   4.650
       C   1.321   9.011   5.172
       C   4.365   6.425   3.869
       A   6.019   6.089   3.921
       A   5.666   6.388   4.163
       A   5.227   6.707   4.264
       A   4.868   6.933   4.448
       A   4.453   7.128   4.747
       B   3.998   7.536   4.809
       B   3.691   7.702   5.111
       B   3.405   7.981   5.238
       B   2.960   8.233   5.533
       B   2.638   8.435   5.603
